
     RDKit          3D

 37 41  0  0  0  0  0  0  0  0999 V2000
   22.2570   11.3297   56.7250 C   0  0  0  0  0  0  0  0  0  0  0  0
   20.9397   12.1081   56.4531 C   0  0  0  0  0  0  0  0  0  0  0  0
   19.8871   11.3456   55.8814 C   0  0  0  0  0  0  0  0  0  0  0  0
   18.7577   11.9780   55.4084 C   0  0  0  0  0  0  0  0  0  0  0  0
   18.6261   13.3763   55.5369 C   0  0  0  0  0  0  0  0  0  0  0  0
   17.3905   13.9998   55.7352 N   0  0  0  0  0  0  0  0  0  0  0  0
   16.8936   15.0995   55.0571 C   0  0  0  0  0  0  0  0  0  0  0  0
   17.3885   16.1258   54.9126 O   0  0  0  0  0  0  0  0  0  0  0  0
   16.0012   14.5259   53.9648 C   0  0  0  0  0  0  0  0  0  0  0  0
   14.7605   14.0183   54.3430 C   0  0  0  0  0  0  0  0  0  0  0  0
   13.5897   14.7128   53.9062 C   0  0  0  0  0  0  0  0  0  0  0  0
   13.6245   15.4216   52.6879 C   0  0  0  0  0  0  0  0  0  0  0  0
   12.3522   15.3927   51.7947 C   0  0  0  0  0  0  0  0  0  0  0  0
   11.0593   15.3527   52.4682 N   0  0  0  0  0  0  0  0  0  0  0  0
   10.0324   16.2412   51.8312 C   0  0  0  0  0  0  0  0  0  0  0  0
    8.7010   16.2697   52.6652 C   0  0  0  0  0  0  0  0  0  0  0  0
    8.4981   15.2035   53.5498 N   0  0  0  0  0  0  0  0  0  0  0  0
    7.2087   15.3990   54.2790 C   0  0  0  0  0  0  0  0  0  0  0  0
    9.6261   15.0863   54.4767 C   0  0  0  0  0  0  0  0  0  0  0  0
   11.0336   15.4255   53.8588 C   0  0  0  0  0  0  0  0  0  0  0  0
   14.8426   15.7962   52.1649 C   0  0  0  0  0  0  0  0  0  0  0  0
   16.0387   15.2501   52.6744 C   0  0  0  0  0  0  0  0  0  0  0  0
   19.7949   14.0825   55.8627 C   0  0  0  0  0  0  0  0  0  0  0  0
   20.8634   13.4734   56.5494 C   0  0  0  0  0  0  0  0  0  0  0  0
   21.7143   14.1456   57.3951 N   0  0  0  0  0  0  0  0  0  0  0  0
   22.4354   15.3790   57.2879 C   0  0  0  0  0  0  0  0  0  0  0  0
   22.9396   15.6376   56.0624 N   0  0  0  0  0  0  0  0  0  0  0  0
   24.2891   15.8015   56.0248 C   0  0  0  0  0  0  0  0  0  0  0  0
   25.0849   15.6110   57.1732 C   0  0  0  0  0  0  0  0  0  0  0  0
   24.3285   16.1303   58.3810 C   0  0  0  0  0  0  0  0  0  0  0  0
   24.5538   17.5788   58.6155 C   0  0  0  0  0  0  0  0  0  0  0  0
   25.0424   18.0761   59.7994 C   0  0  0  0  0  0  0  0  0  0  0  0
   26.1708   18.9043   59.8731 C   0  0  0  0  0  0  0  0  0  0  0  0
   26.9121   19.0548   58.7391 C   0  0  0  0  0  0  0  0  0  0  0  0
   26.4413   18.7073   57.5151 N   0  0  0  0  0  0  0  0  0  0  0  0
   25.1278   18.2709   57.4927 C   0  0  0  0  0  0  0  0  0  0  0  0
   23.0384   15.7618   58.4137 N   0  0  0  0  0  0  0  0  0  0  0  0
  1  2  1  0
  2  3  2  0
  3  4  1  0
  4  5  2  0
  5  6  1  0
  6  7  1  0
  7  8  2  0
  7  9  1  0
  9 10  2  0
 10 11  1  0
 11 12  2  0
 12 13  1  0
 13 14  1  0
 14 15  1  0
 15 16  1  0
 16 17  1  0
 17 18  1  0
 17 19  1  0
 19 20  1  0
 12 21  1  0
 21 22  2  0
  5 23  1  0
 23 24  2  0
 24 25  1  0
 25 26  1  0
 26 27  2  0
 27 28  1  0
 28 29  2  0
 29 30  1  0
 30 31  1  0
 31 32  2  0
 32 33  1  0
 33 34  2  0
 34 35  1  0
 35 36  2  0
 30 37  2  0
 24  2  1  0
 37 26  1  0
 22  9  1  0
 36 31  1  0
 20 14  1  0
M  END
$$$$
