
     RDKit          3D

 37 41  0  0  0  0  0  0  0  0999 V2000
   -5.6664   -1.0610    3.5177 C   0  0  0  0  0  0  0  0  0  0  0  0
   -4.2102   -1.0967    3.1346 C   0  0  0  0  0  0  0  0  0  0  0  0
   -3.2814   -1.5353    4.0931 C   0  0  0  0  0  0  0  0  0  0  0  0
   -1.9186   -1.5957    3.8006 C   0  0  0  0  0  0  0  0  0  0  0  0
   -1.4597   -1.2173    2.5455 C   0  0  0  0  0  0  0  0  0  0  0  0
   -0.1030   -1.2548    2.1575 N   0  0  0  0  0  0  0  0  0  0  0  0
    0.9885   -1.5739    2.9438 C   0  0  0  0  0  0  0  0  0  0  0  0
    0.9881   -1.8136    4.1451 O   0  0  0  0  0  0  0  0  0  0  0  0
    2.2939   -1.5765    2.2247 C   0  0  0  0  0  0  0  0  0  0  0  0
    3.4327   -1.1331    2.9047 C   0  0  0  0  0  0  0  0  0  0  0  0
    4.6732   -1.1203    2.2625 C   0  0  0  0  0  0  0  0  0  0  0  0
    4.7961   -1.5569    0.9348 C   0  0  0  0  0  0  0  0  0  0  0  0
    6.1444   -1.5479    0.2425 C   0  0  0  0  0  0  0  0  0  0  0  0
    6.4616   -0.3739   -0.5697 N   0  0  0  0  0  0  0  0  0  0  0  0
    6.6816    0.8639    0.1910 C   0  0  0  0  0  0  0  0  0  0  0  0
    6.6544    2.1534   -0.6759 C   0  0  0  0  0  0  0  0  0  0  0  0
    7.0123    1.9777   -2.0952 N   0  0  0  0  0  0  0  0  0  0  0  0
    8.4327    1.6518   -2.2362 C   0  0  0  0  0  0  0  0  0  0  0  0
    6.1655    0.9216   -2.6947 C   0  0  0  0  0  0  0  0  0  0  0  0
    5.5928   -0.1486   -1.7233 C   0  0  0  0  0  0  0  0  0  0  0  0
    3.6523   -2.0262    0.2700 C   0  0  0  0  0  0  0  0  0  0  0  0
    2.4086   -2.0387    0.9083 C   0  0  0  0  0  0  0  0  0  0  0  0
   -2.3875   -0.7808    1.5863 C   0  0  0  0  0  0  0  0  0  0  0  0
   -3.7651   -0.7047    1.8516 C   0  0  0  0  0  0  0  0  0  0  0  0
   -4.6930   -0.2736    0.8912 N   0  0  0  0  0  0  0  0  0  0  0  0
   -4.6130    0.1347   -0.4372 C   0  0  0  0  0  0  0  0  0  0  0  0
   -3.4611    0.1393   -1.1197 N   0  0  0  0  0  0  0  0  0  0  0  0
   -3.5040    0.5507   -2.3973 C   0  0  0  0  0  0  0  0  0  0  0  0
   -4.6547    0.9526   -3.0271 C   0  0  0  0  0  0  0  0  0  0  0  0
   -5.8054    0.9168   -2.2672 C   0  0  0  0  0  0  0  0  0  0  0  0
   -7.1255    1.3178   -2.7848 C   0  0  0  0  0  0  0  0  0  0  0  0
   -8.1066    1.8748   -1.9496 C   0  0  0  0  0  0  0  0  0  0  0  0
   -9.3481    2.2542   -2.4593 C   0  0  0  0  0  0  0  0  0  0  0  0
   -9.5876    2.0650   -3.8077 C   0  0  0  0  0  0  0  0  0  0  0  0
   -8.6867    1.5291   -4.6554 N   0  0  0  0  0  0  0  0  0  0  0  0
   -7.4918    1.1663   -4.1238 C   0  0  0  0  0  0  0  0  0  0  0  0
   -5.7835    0.5163   -0.9747 N   0  0  0  0  0  0  0  0  0  0  0  0
  1  2  1  0
  2  3  2  0
  3  4  1  0
  4  5  2  0
  5  6  1  0
  6  7  1  0
  7  8  2  0
  7  9  1  0
  9 10  2  0
 10 11  1  0
 11 12  2  0
 12 13  1  0
 13 14  1  0
 14 15  1  0
 15 16  1  0
 16 17  1  0
 17 18  1  0
 17 19  1  0
 19 20  1  0
 12 21  1  0
 21 22  2  0
  5 23  1  0
 23 24  2  0
 24 25  1  0
 25 26  1  0
 26 27  2  0
 27 28  1  0
 28 29  2  0
 29 30  1  0
 30 31  1  0
 31 32  2  0
 32 33  1  0
 33 34  2  0
 34 35  1  0
 35 36  2  0
 30 37  2  0
 24  2  1  0
 37 26  1  0
 22  9  1  0
 36 31  1  0
 20 14  1  0
M  END
$$$$
